Version 4
SHEET 1 1232 680
WIRE 368 -176 368 -240
WIRE 272 -80 272 -240
WIRE -240 -64 -240 -112
WIRE -96 -64 -96 -112
WIRE 368 -32 368 -96
WIRE 512 -32 368 -32
WIRE 368 32 368 -32
WIRE -240 64 -240 16
WIRE -96 64 -96 16
WIRE 272 80 272 0
WIRE 272 80 240 80
WIRE 304 80 272 80
WIRE 160 128 96 128
WIRE 368 208 368 128
WIRE 160 256 160 128
WIRE 240 256 240 80
WIRE 224 336 224 304
WIRE 256 336 224 336
WIRE 176 352 176 304
FLAG 96 128 0
FLAG 272 -240 3V3
FLAG 368 -240 3V3
FLAG 368 208 0
FLAG 512 -32 D1
FLAG 176 352 0
FLAG 256 336 Von
FLAG -96 64 0
FLAG -240 64 0
FLAG -96 -112 Von
FLAG -240 -112 3V3
SYMBOL npn 304 32 R0
SYMATTR InstName Q1
SYMBOL res 256 -96 R0
SYMATTR InstName R2
SYMATTR Value 10k
SYMBOL res 352 -192 R0
SYMATTR InstName R3
SYMATTR Value 1k
SYMBOL sw 144 256 R270
SYMATTR InstName S1
SYMATTR Value MYSW
SYMBOL voltage -240 -80 R0
WINDOW 123 0 0 Left 0
WINDOW 39 0 0 Left 0
SYMATTR InstName V1
SYMATTR Value 3V3
SYMBOL voltage -96 -80 R0
WINDOW 123 0 0 Left 0
WINDOW 39 0 0 Left 0
SYMATTR InstName V2
SYMATTR Value PULSE(0 3.3 2 0.001 0.001 3)
TEXT -162 306 Left 2 !.tran 10
TEXT 632 320 Left 2 !.model MYSW SW(Ron=1 Roff=1Meg Vt=.5 Vh=-.4)
