Version 4
SHEET 1 880 680
WIRE 352 112 352 48
WIRE 32 144 32 96
WIRE 352 224 352 192
WIRE 432 224 352 224
WIRE 32 272 32 224
WIRE 352 272 352 224
WIRE 352 416 352 352
FLAG 32 96 sig
FLAG 32 272 0
FLAG 352 48 sig
FLAG 432 224 A0
FLAG 352 416 0
SYMBOL voltage 32 128 R0
WINDOW 123 0 0 Left 0
WINDOW 39 0 0 Left 0
SYMATTR InstName V1
SYMATTR Value PULSE(1 5 0 10 0 0.1 1)
SYMBOL res 336 96 R0
SYMATTR InstName R1
SYMATTR Value 47k
SYMBOL res 336 256 R0
SYMATTR InstName R2
SYMATTR Value 100k
TEXT -2 440 Left 2 !.tran 10
