Version 4
SHEET 1 2176 748
WIRE 336 112 336 96
WIRE 448 112 336 112
WIRE 336 144 336 112
WIRE 896 192 832 192
WIRE 1008 192 976 192
WIRE 1136 192 1008 192
WIRE 1248 192 1216 192
WIRE -256 224 -256 144
WIRE 1072 240 1072 128
WIRE 336 256 336 224
WIRE 448 256 336 256
WIRE 1008 256 1008 192
WIRE 1040 256 1008 256
WIRE 1248 272 1248 192
WIRE 1248 272 1104 272
WIRE 1264 272 1248 272
WIRE 336 288 336 256
WIRE 1040 288 1008 288
WIRE 272 336 160 336
WIRE 896 352 832 352
WIRE 1008 352 1008 288
WIRE 1008 352 976 352
WIRE -256 368 -256 304
WIRE 1008 400 1008 352
WIRE 1008 400 944 400
WIRE 944 448 944 400
WIRE 1072 464 1072 304
WIRE 336 576 336 384
WIRE 944 576 944 528
WIRE 336 720 336 656
FLAG -256 368 0
FLAG -256 144 3V3
FLAG 1072 128 3V3
FLAG 1264 272 ADC
FLAG 944 576 0
FLAG 1072 464 0
FLAG 336 720 0
FLAG 448 112 VHigh
FLAG 448 256 VLow
FLAG 336 96 3V3
FLAG 160 336 3V3
FLAG 832 192 VLow
FLAG 832 352 VHigh
SYMBOL voltage -256 208 R0
WINDOW 123 0 0 Left 0
WINDOW 39 0 0 Left 0
SYMATTR InstName V1
SYMATTR Value 3.3
SYMBOL res 992 176 R90
WINDOW 0 0 56 VBottom 2
WINDOW 3 32 56 VTop 2
SYMATTR InstName R1
SYMATTR Value 1k
SYMBOL res 992 336 R90
WINDOW 0 0 56 VBottom 2
WINDOW 3 32 56 VTop 2
SYMATTR InstName R2
SYMATTR Value 1k
SYMBOL res 1232 176 R90
WINDOW 0 0 56 VBottom 2
WINDOW 3 32 56 VTop 2
SYMATTR InstName R9
SYMATTR Value 20k
SYMBOL res 928 432 R0
SYMATTR InstName R10
SYMATTR Value 20k
SYMBOL OpAmps\\LT1013 1072 208 R0
SYMATTR InstName U1
SYMBOL res 320 128 R0
WINDOW 3 44 83 Left 2
SYMATTR InstName R5
SYMATTR Value {R}
SYMBOL npn 272 288 R0
SYMATTR InstName Q1
SYMATTR Value 2N2222
SYMBOL res 320 560 R0
SYMATTR InstName R6
SYMATTR Value 2700
TEXT -314 472 Left 2 !.tran 10
TEXT -312 520 Left 2 !.step param R 0.001 100 10
